/*---------------------------------------------------------------------------*\
  =========                 |
  \\      /  F ield         | OpenFOAM: The Open Source CFD Toolbox
   \\    /   O peration     | Website:  https://openfoam.org
    \\  /    A nd           | Version:  12
     \\/     M anipulation  |
\*---------------------------------------------------------------------------*/
Build  : 12-6aa359dae696
Exec   : potentialFoam -writePhi -writep
Date   : Dec 18 2024
Time   : 17:20:46
Host   : "pop-os"
PID    : 36566
I/O    : uncollated
Case   : /home/david/OpenFOAM_Catalyst/minimizeArea/test_case
nProcs : 1
sigFpe : Enabling floating point exception trapping (FOAM_SIGFPE).
fileModificationChecking : Monitoring run-time modified files using timeStampMaster (fileModificationSkew 10)
allowSystemOperations : Allowing user-supplied system call operations

// * * * * * * * * * * * * * * * * * * * * * * * * * * * * * * * * * * * * * //
Create time

Create mesh for time = 0

Reading velocity field U



--> FOAM FATAL ERROR: 
cannot find file "/home/david/OpenFOAM_Catalyst/minimizeArea/test_case/0/U"

    From function virtual Foam::autoPtr<Foam::ISstream> Foam::fileOperations::uncollatedFileOperation::readStream(Foam::regIOobject&, const Foam::fileName&, const Foam::word&, bool) const
    in file global/fileOperations/uncollatedFileOperation/uncollatedFileOperation.C at line 539.

FOAM exiting

