/*---------------------------------------------------------------------------*\
  =========                 |
  \\      /  F ield         | OpenFOAM: The Open Source CFD Toolbox
   \\    /   O peration     | Website:  https://openfoam.org
    \\  /    A nd           | Version:  12
     \\/     M anipulation  |
\*---------------------------------------------------------------------------*/
Build  : 12-6aa359dae696
Exec   : foamPostProcess -func streamFunction
Date   : Dec 18 2024
Time   : 17:20:46
Host   : "pop-os"
PID    : 36567
I/O    : uncollated
Case   : /home/david/OpenFOAM_Catalyst/minimizeArea/test_case
nProcs : 1
sigFpe : Enabling floating point exception trapping (FOAM_SIGFPE).
fileModificationChecking : Monitoring run-time modified files using timeStampMaster (fileModificationSkew 10)
allowSystemOperations : Allowing user-supplied system call operations

// * * * * * * * * * * * * * * * * * * * * * * * * * * * * * * * * * * * * * //
Create time

Create mesh for time = 0

Time = 0s

Reading fields:

Executing functionObjects
--> FOAM Warning :     functionObjects::streamFunction streamFunction cannot find required object phi of type surfaceScalarField
--> FOAM Warning :     functionObjects::streamFunction streamFunction failed to execute.

End

